 &time_control
 run_days                            = 0,
 run_hours                           = 00,
 run_minutes                         = 10,
 run_seconds                         = 00,
 start_year                          = 2022, 0001, 0001,
 start_month                         = 01,   01,   01,
 start_day                           = 01,   01,   01,
 start_hour                          = 00,   00,   00,
 start_minute                        = 00,   00,   00,
 start_second                        = 00,   00,   00,
 end_year                            = 2022, 0001, 0001,
 end_month                           = 01,   01,   01,
 end_day                             = 01,   01,   01,
 end_hour                            = 01,   01,   00,
 end_minute                          = 00,   01,   00,
 end_second                          = 00,   00,   00,
 history_interval_m                  = 01,   10,   1,
 history_interval_s                  = 00,   00,   1,
 frames_per_outfile                  = 1000, 1000, 1000,
 restart                             = .false.,
 restart_interval_m                  = 60,
 io_form_history                     = 2,
 io_form_restart                     = 2,
 io_form_input                       = 2,
 io_form_boundary                    = 2,
 io_form_auxinput5                   = 2,
 auxinput5_inname                    = 'wrfchemi_00z_d01',
 auxinput5_interval                  = 60,
 frames_per_auxinput5                = 12,
 force_use_old_data                  = .true.,
 !debug_level                         = 1000,
 /

 &domains
 time_step                           = 0,
 time_step_fract_num                 = 1,
 time_step_fract_den                 = 2,
 max_dom                             = 1,
 s_we                                = 1,     1,     1,
 e_we                                = 100,   100,    151,
 s_sn                                = 1,     1,     1,
 e_sn                                = 100,   100,    151,
 s_vert                              = 1,     1,     1,
 e_vert                              = 200,   100,    41,
 dx                                  = 100,
 dy                                  = 100,
 ztop                                = 2000,  2000,  2000,
 grid_id                             = 1,     2,     3,
 parent_id                           = 0,     1,     2,
 i_parent_start                      = 0,     10,    15,
 j_parent_start                      = 0,     10,    15,
 parent_grid_ratio                   = 1,     3,     3,
 parent_time_step_ratio              = 1,     3,     3,
 feedback                            = 0,
 smooth_option                       = 0,
 use_adaptive_time_step              = .false.,
 /

 &physics
 mp_physics                          = 0,     0,     0,
 ra_lw_physics                       = 0,     0,     0,
 ra_sw_physics                       = 0,     0,     0,
 radt                                = 0,     0,     0,
 sf_sfclay_physics                   = 0,     1,     1,
 sf_surface_physics                  = 1,     0,     0,
 bl_pbl_physics                      = 0,     0,     0,
 bldt                                = 0,     0,     0,
 cu_physics                          = 0,     0,     0,
 cudt                                = 0,     0,     0,
 isfflx                              = 2,
 ghg_input                           = 0,
 num_land_cat                        = 41,
 progn                               = 1 ! add for use with chem_opt 10
 /

 &fdda
 /

 &dynamics
 hybrid_opt                          = 0, 
 rk_ord                              = 3,
 diff_opt                            = 2,      2,      2,
 km_opt                              = 2,      2,      2,
 damp_opt                            = 0,
 zdamp                               = 5000.,  5000.,  5000.,
 dampcoef                            = 0.1,    0.2,    0.2
 khdif                               = 1.,      1.,    .05,
 kvdif                               = 1.,      1.,    .05,
 c_s                                 = 0.18
 c_k                                 = 0.10
 mix_isotropic                       = 1
 smdiv                               = 0.1,    0.1,    0.1,
 emdiv                               = 0.01,   0.01,   0.01,
 epssm                               = 0.1,    0.1,    0.1
 tke_heat_flux                       = 0.24,   0.24,   0.24,
 time_step_sound                     = 6,      6,      6,
 h_mom_adv_order                     = 5,      5,      5,
 v_mom_adv_order                     = 3,      3,      3,
 h_sca_adv_order                     = 5,      5,      5,
 v_sca_adv_order                     = 3,      3,      3,
 mix_full_fields                     = .true., .true., .true.,
 non_hydrostatic                     = .true., .true., .true.,
 pert_coriolis                       = .true., .true., .true.,
 use_theta_m                         = 1,
 /

&chem
 kemit                               = 1,
 chem_opt                            = 1, ! previously 1. maybe use 202 when using MOZART-MOSAIC global emissions data
 chem_conv_tr                        = 0, ! convective transport, set 1 (active) by default (requires cu_diag under physics to be 1 which I think requires cu_physics?)
 io_style_emissions                  = 1, ! previously 0
 emiss_opt                           = 10, ! previously 0
 bio_emiss_opt                       = 0,
 emiss_inpt_opt                      = 1,       
 chem_in_opt                         = 0,
 chemdt                              = 0, ! set to 0 to call chemistry module at each timestep
 gaschem_onoff                       = 1,

 /

 &bdy_control
 periodic_x                          = .true., 
 symmetric_xs                        = .false.,
 symmetric_xe                        = .false.,
 open_xs                             = .false.,
 open_xe                             = .false.,
 periodic_y                          = .true., 
 symmetric_ys                        = .false.,
 symmetric_ye                        = .false.,
 open_ys                             = .false.,
 open_ye                             = .false.,
 /

 &grib2
 /

 &namelist_quilt
 nio_tasks_per_group = 0,
 nio_groups = 1,
 /

 &ideal
 ideal_case = 9
 /

